
**** 02/21/17 00:02:53 ****** PSpice Lite (October 2012) ****** ID# 10813 ****

 ** Profile: "SCHEMATIC1-resposta frequencial"  [ F:\FISE\INTRO\circuitRC-PSpiceFiles\SCHEMATIC1\resposta frequencial.sim ] 


 ****     CIRCUIT DESCRIPTION


******************************************************************************




** Creating circuit file "resposta frequencial.cir" 
** WARNING: THIS AUTOMATICALLY GENERATED FILE MAY BE OVERWRITTEN BY SUBSEQUENT SIMULATIONS

*Libraries: 
* Profile Libraries :
* Local Libraries :
* From [PSPICE NETLIST] section of C:\Users\ErWin\AppData\Roaming\SPB_16.6\cdssetup\OrCAD_PSpice/16.6.0/PSpice.ini file:
.lib "nomd.lib" 

*Analysis directives: 
.AC DEC 1000 100Hz 10megHz
.OPTIONS ADVCONV
.PROBE64 V(alias(*)) I(alias(*)) W(alias(*)) D(alias(*)) NOISE(alias(*)) 
.INC "..\SCHEMATIC1.net" 



**** INCLUDING SCHEMATIC1.net ****
* source CIRCUITRC
V_V1         N00193 0 DC 0Vdc AC 1Vac 
C_C1         N00200 N00193  10n  TC=0,0 
R_R1         0 N00200  1k TC=0,0 

**** RESUMING "resposta frequencial.cir" ****
.END

**** 02/21/17 00:02:53 ****** PSpice Lite (October 2012) ****** ID# 10813 ****

 ** Profile: "SCHEMATIC1-resposta frequencial"  [ F:\FISE\INTRO\circuitRC-PSpiceFiles\SCHEMATIC1\resposta frequencial.sim ] 


 ****     SMALL SIGNAL BIAS SOLUTION       TEMPERATURE =   27.000 DEG C


******************************************************************************



 NODE   VOLTAGE     NODE   VOLTAGE     NODE   VOLTAGE     NODE   VOLTAGE


(N00193)    0.0000 (N00200)    0.0000 




    VOLTAGE SOURCE CURRENTS
    NAME         CURRENT

    V_V1         0.000E+00

    TOTAL POWER DISSIPATION   0.00E+00  WATTS



          JOB CONCLUDED

**** 02/21/17 00:02:53 ****** PSpice Lite (October 2012) ****** ID# 10813 ****

 ** Profile: "SCHEMATIC1-resposta frequencial"  [ F:\FISE\INTRO\circuitRC-PSpiceFiles\SCHEMATIC1\resposta frequencial.sim ] 


 ****     JOB STATISTICS SUMMARY


******************************************************************************



  Total job time (using Solver 1)   =         .06
