
**** 02/21/17 10:33:54 ****** PSpice Lite (October 2012) ****** ID# 10813 ****

 ** Profile: "SCHEMATIC1-resposta temporal"  [ F:\FISE\INTRO\circuitrc-pspicefiles\schematic1\resposta temporal.sim ] 


 ****     CIRCUIT DESCRIPTION


******************************************************************************




** Creating circuit file "resposta temporal.cir" 
** WARNING: THIS AUTOMATICALLY GENERATED FILE MAY BE OVERWRITTEN BY SUBSEQUENT SIMULATIONS

*Libraries: 
* Profile Libraries :
* Local Libraries :
* From [PSPICE NETLIST] section of C:\Users\ErWin\AppData\Roaming\SPB_16.6\cdssetup\OrCAD_PSpice/16.6.0/PSpice.ini file:
.lib "nomd.lib" 

*Analysis directives: 
.TRAN  0 1ms 0 2us 
.OPTIONS ADVCONV
.PROBE64 V(alias(*)) I(alias(*)) W(alias(*)) D(alias(*)) NOISE(alias(*)) 
.INC "..\SCHEMATIC1.net" 



**** INCLUDING SCHEMATIC1.net ****
* source CIRCUITRC
C_C1         N00200 N00193  10n  TC=0,0 
R_R1         0 N00200  1k TC=0,0 
V_Vi         N00193 0  
+PULSE 0V 1V 1ns 1ns 1ns 100us 200us

**** RESUMING "resposta temporal.cir" ****
.END

**** 02/21/17 10:33:54 ****** PSpice Lite (October 2012) ****** ID# 10813 ****

 ** Profile: "SCHEMATIC1-resposta temporal"  [ F:\FISE\INTRO\circuitrc-pspicefiles\schematic1\resposta temporal.sim ] 


 ****     INITIAL TRANSIENT SOLUTION       TEMPERATURE =   27.000 DEG C


******************************************************************************



 NODE   VOLTAGE     NODE   VOLTAGE     NODE   VOLTAGE     NODE   VOLTAGE


(N00193)    0.0000 (N00200)    0.0000 




    VOLTAGE SOURCE CURRENTS
    NAME         CURRENT

    V_Vi         0.000E+00

    TOTAL POWER DISSIPATION   0.00E+00  WATTS



          JOB CONCLUDED

**** 02/21/17 10:33:54 ****** PSpice Lite (October 2012) ****** ID# 10813 ****

 ** Profile: "SCHEMATIC1-resposta temporal"  [ F:\FISE\INTRO\circuitrc-pspicefiles\schematic1\resposta temporal.sim ] 


 ****     JOB STATISTICS SUMMARY


******************************************************************************



  Total job time (using Solver 1)   =         .03
